*HEADING
test strain efinitions
**
*NODE, SYSTEM=R, NSET=NALL
       1,            0.,            0.
       2,           0.5,            0.
       3,            1.,            0.
       4,           1.5,            0.
       5,            2.,            0.
       6,           2.5,            0.
       7,            3.,            0.
       8,           3.5,            0.
       9,            4.,            0.
      10,           4.5,            0.
      11,            5.,            0.
      12,            0.,          0.25
      13,            1.,          0.25
      14,            2.,          0.25
      15,            3.,          0.25
      16,            4.,          0.25
      17,            5.,          0.25
      18,            0.,           0.5
      19,           0.5,           0.5
      20,            1.,           0.5
** ... 151 like lines cut
**
**
*ELEMENT, TYPE=C3D20R, ELSET=eall
       1,       1,       3,      20,      18,      64,      66,      83,
      81,       2,      13,      19,      12,      65,      76,      82,
      75,      46,      47,      53,      52
       2,       3,       5,      22,      20,      66,      68,      85,
      83,       4,      14,      21,      13,      67,      77,      84,
      76,      47,      48,      54,      53
       3,       5,       7,      24,      22,      68,      70,      87,
      85,       6,      15,      23,      14,      69,      78,      86,
      77,      48,      49,      55,      54
       4,       7,       9,      26,      24,      70,      72,      89,
      87,       8,      16,      25,      15,      71,      79,      88,
      78,      49,      50,      56,      55
       5,       9,      11,      28,      26,      72,      74,      91,
      89,      10,      17,      27,      16,      73,      80,      90,
      79,      50,      51,      57,      56
       6,      18,      20,      37,      35,      81,      83,     100,
      98,      19,      30,      36,      29,      82,      93,      99,
      92,      52,      53,      59,      58
       7,      20,      22,      39,      37,      83,      85,     102,
     100,      21,      31,      38,      30,      84,      94,     101,
** ... 40 like lines cut
*NSET, NSET=FIXED
       1,      12,      18,      29,      35,      46,      52,      58,
      64,      75,      81,      92,      98,     109,     115,     121,
     127,     138,     144,     155,      161
*NSET, NSET=UP
      11,      17,      28,      34,      45,      51,      57,      63,
      74,      80,      91,      97,     108,     114,     120,     126,
     137,     143,     154,     160,      171
*NSET, NSET=outele     
*SOLID SECTION,ELSET=eall,MATERIAL=steel
*MATERIAL,NAME=steel
*elastic
100.0,   .30
**
**
*STEP, AMPLITUDE=RAMP, INC=10000,NLGEOM
*STATIC,direct
0.01, 1.
*RESTART,WRITE,FREQ=500      
**
*BOUNDARY, OP=NEW
FIXED, 1,,          0.
FIXED, 2,,          0.
FIXED, 3,,          0.
*CLOAD, OP=NEW
UP, 2,    0.047619
UP, 3,    0.047619
**
*NODE PRINT, FREQ=20
U,
**
*EL PRINT, POS=INTEG, FREQ=20
S,
E,
**
*END STEP
